!PBE0 DEF2-SVP
%TDDFT NROOTS 5
SGRADLIST  0, 1
NACME TRUE
ETF TRUE
END
* xyz 0 1
O       0.00000000       0.00000000       0.61140329
C       0.00000000       0.00000000      -0.61323210
H       0.93188079       0.00000000      -1.20088085
H      -0.93188079       0.00000000      -1.20088085
*

%METHOD STORECISGRAD TRUE END

