%NProcShared=4
%Mem=4GB
%Chk=orca_gaussian.chk
 
#P PBE1PBE/Def2SVP TD(NStates=5, NAC, Analytical) Density=Current
 
Title Card Required
 
0 1
O       0.00000000       0.00000000       0.61140329
C       0.00000000       0.00000000      -0.61323210
H       0.93188079       0.00000000      -1.20088085
H      -0.93188079       0.00000000      -1.20088085
